untitled.cdx
csChFnd80/05071909342D

 28 31  0  0  0  0  0  0  0  0999 V2000
    1.0404    2.1000    0.0000 C   0  0  0  0  0  0  0  0  0  0  0  0
    1.0404    0.7000    0.0000 C   0  0  0  0  0  0  0  0  0  0  0  0
    2.2528    0.0000    0.0000 C   0  0  0  0  0  0  0  0  0  0  0  0
    3.4653    0.7000    0.0000 C   0  0  0  0  0  0  0  0  0  0  0  0
    3.4653    2.1000    0.0000 C   0  0  0  0  0  0  0  0  0  0  0  0
    2.2528    2.8000    0.0000 C   0  0  0  0  0  0  0  0  0  0  0  0
    1.9618    4.1694    0.0000 C   0  0  0  0  0  0  0  0  0  0  0  0
    0.5694    4.3157    0.0000 N   0  0  0  0  0  0  0  0  0  0  0  0
    0.0000    3.0368    0.0000 N   0  0  0  0  0  0  0  0  0  0  0  0
    4.6735    2.7976    0.0000 C   0  0  0  0  0  0  0  0  0  0  0  0
    5.8859    2.0976    0.0000 C   0  0  0  0  0  0  0  0  0  0  0  0
    7.0984    2.7976    0.0000 C   0  0  0  0  0  0  0  0  0  0  0  0
    7.0984    4.1976    0.0000 C   0  0  0  0  0  0  0  0  0  0  0  0
    5.8859    4.8976    0.0000 C   0  0  0  0  0  0  0  0  0  0  0  0
    4.6735    4.1976    0.0000 C   0  0  0  0  0  0  0  0  0  0  0  0
    8.3066    4.8951    0.0000 N   0  0  0  0  0  0  0  0  0  0  0  0
    9.5148    4.1976    0.0000 C   0  0  0  0  0  0  0  0  0  0  0  0
    9.5148    2.8024    0.0000 O   0  0  0  0  0  0  0  0  0  0  0  0
   10.7231    4.8951    0.0000 N   0  0  0  0  0  0  0  0  0  0  0  0
   11.9313    4.1976    0.0000 C   0  0  0  0  0  0  0  0  0  0  0  0
   11.9313    2.7976    0.0000 C   0  0  0  0  0  0  0  0  0  0  0  0
   13.1437    2.0976    0.0000 C   0  0  0  0  0  0  0  0  0  0  0  0
   14.3562    2.7976    0.0000 C   0  0  0  0  0  0  0  0  0  0  0  0
   14.3562    4.1976    0.0000 C   0  0  0  0  0  0  0  0  0  0  0  0
   13.1437    4.8976    0.0000 C   0  0  0  0  0  0  0  0  0  0  0  0
   15.5644    4.8951    0.0000 C   0  0  0  0  0  0  0  0  0  0  0  0
   10.7231    2.1000    0.0000 F   0  0  0  0  0  0  0  0  0  0  0  0
    2.8953    5.2062    0.0000 N   0  0  0  0  0  0  0  0  0  0  0  0
  1  2  2  0  0  0  0
  2  3  1  0  0  0  0
  3  4  2  0  0  0  0
  4  5  1  0  0  0  0
  5  6  2  0  0  0  0
  6  1  1  0  0  0  0
  6  7  1  0  0  0  0
  7  8  2  0  0  0  0
  8  9  1  0  0  0  0
  9  1  1  0  0  0  0
  5 10  1  0  0  0  0
 10 11  2  0  0  0  0
 11 12  1  0  0  0  0
 12 13  2  0  0  0  0
 13 14  1  0  0  0  0
 14 15  2  0  0  0  0
 15 10  1  0  0  0  0
 13 16  1  0  0  0  0
 16 17  1  0  0  0  0
 17 18  2  0  0  0  0
 17 19  1  0  0  0  0
 19 20  1  0  0  0  0
 20 21  2  0  0  0  0
 21 22  1  0  0  0  0
 22 23  2  0  0  0  0
 23 24  1  0  0  0  0
 24 25  2  0  0  0  0
 25 20  1  0  0  0  0
 24 26  1  0  0  0  0
 21 27  1  0  0  0  0
  7 28  1  0  0  0  0
M  END
>  <Mol_ID> (1)
2

>  <Formula> (1)
C21H18FN5O

>  <MolWeight> (1)
375.3989232

>  <Cat> (1)
S1003

>  <Name> (1)
Linifanib (ABT-869)

>  <Synonyms> (1)
AL-39324

>  <Target> (1)
PDGFR, VEGFR

>  <Form> (1)
Free Base

>  <CAS> (1)
796967-16-3

>  <URL> (1)
http://www.selleckchem.com/products/ABT-869.html

$$$$
ABT-888(Veliparib).cdx
csChFnd80/05071909342D

 18 20  0  0  0  0  0  0  0  0999 V2000
    0.0000    2.1000    0.0000 C   0  0  0  0  0  0  0  0  0  0  0  0
    0.0000    0.7000    0.0000 C   0  0  0  0  0  0  0  0  0  0  0  0
    1.2124    0.0000    0.0000 C   0  0  0  0  0  0  0  0  0  0  0  0
    2.4249    0.7000    0.0000 C   0  0  0  0  0  0  0  0  0  0  0  0
    2.4249    2.1000    0.0000 C   0  0  0  0  0  0  0  0  0  0  0  0
    1.2124    2.8000    0.0000 C   0  0  0  0  0  0  0  0  0  0  0  0
    1.2124    4.1951    0.0000 C   0  0  0  0  0  0  0  0  0  0  0  0
    0.0042    4.8927    0.0000 N   0  0  0  0  0  0  0  0  0  0  0  0
    2.4207    4.8927    0.0000 O   0  0  0  0  0  0  0  0  0  0  0  0
    3.7564    0.2674    0.0000 N   0  0  0  0  0  0  0  0  0  0  0  0
    4.5793    1.4000    0.0000 C   0  0  0  0  0  0  0  0  0  0  0  0
    3.7564    2.5326    0.0000 N   0  0  0  0  0  0  0  0  0  0  0  0
    5.9744    1.4000    0.0000 C   0  0  2  0  0  0  0  0  0  0  0  0
    6.7973    0.2674    0.0000 N   0  0  0  0  0  0  0  0  0  0  0  0
    8.1288    0.7000    0.0000 C   0  0  0  0  0  0  0  0  0  0  0  0
    8.1288    2.1000    0.0000 C   0  0  0  0  0  0  0  0  0  0  0  0
    6.7973    2.5326    0.0000 C   0  0  0  0  0  0  0  0  0  0  0  0
    5.3410    2.6431    0.0000 C   0  0  0  0  0  0  0  0  0  0  0  0
  1  2  2  0  0  0  0
  2  3  1  0  0  0  0
  3  4  2  0  0  0  0
  4  5  1  0  0  0  0
  5  6  2  0  0  0  0
  6  1  1  0  0  0  0
  6  7  1  0  0  0  0
  7  8  1  0  0  0  0
  7  9  2  0  0  0  0
  4 10  1  0  0  0  0
 10 11  1  0  0  0  0
 11 12  2  0  0  0  0
 12  5  1  0  0  0  0
 13 14  1  0  0  0  0
 14 15  1  0  0  0  0
 15 16  1  0  0  0  0
 16 17  1  0  0  0  0
 17 13  1  0  0  0  0
 13 18  1  0  0  0  0
 13 11  1  1  0  0  0
M  END
>  <Mol_ID> (2)
3

>  <Formula> (2)
C13H16N4O

>  <MolWeight> (2)
244.29234

>  <Cat> (2)
S1004

>  <Name> (2)
ABT-888 (Veliparib)

>  <Synonyms> (2)
N/A 

>  <Target> (2)
PARP 

>  <Form> (2)
Free Base

>  <CAS> (2)
912444-00-9

>  <URL> (2)
http://www.selleckchem.com/products/ABT-888.html

$$$$
untitled.cdx
csChFnd80/05071909342D

 28 31  0  0  0  0  0  0  0  0999 V2000
    3.4927    3.4611    0.0000 C   0  0  0  0  0  0  0  0  0  0  0  0
    4.1927    4.6735    0.0000 C   0  0  0  0  0  0  0  0  0  0  0  0
    3.4927    5.8859    0.0000 C   0  0  0  0  0  0  0  0  0  0  0  0
    2.0927    5.8859    0.0000 C   0  0  0  0  0  0  0  0  0  0  0  0
    1.3927    4.6735    0.0000 C   0  0  0  0  0  0  0  0  0  0  0  0
    2.0927    3.4611    0.0000 C   0  0  0  0  0  0  0  0  0  0  0  0
    1.3951    2.2528    0.0000 C   0  0  0  0  0  0  0  0  0  0  0  0
    0.0000    2.2528    0.0000 O   0  0  0  0  0  0  0  0  0  0  0  0
    2.0927    1.0446    0.0000 N   0  0  0  0  0  0  0  0  0  0  0  0
    3.4878    1.0446    0.0000 C   0  0  0  0  0  0  0  0  0  0  0  0
    4.1903    2.2528    0.0000 S   0  0  0  0  0  0  0  0  0  0  0  0
    5.5854    2.2528    0.0000 C   0  0  0  0  0  0  0  0  0  0  0  0
    6.2854    1.0404    0.0000 C   0  0  0  0  0  0  0  0  0  0  0  0
    7.6854    1.0404    0.0000 C   0  0  0  0  0  0  0  0  0  0  0  0
    8.3854    2.2528    0.0000 C   0  0  0  0  0  0  0  0  0  0  0  0
    7.6854    3.4653    0.0000 C   0  0  0  0  0  0  0  0  0  0  0  0
    6.2854    3.4653    0.0000 C   0  0  0  0  0  0  0  0  0  0  0  0
    8.6222    0.0000    0.0000 N   0  0  0  0  0  0  0  0  0  0  0  0
    9.9012    0.5694    0.0000 N   0  0  0  0  0  0  0  0  0  0  0  0
    9.7548    1.9618    0.0000 C   0  0  0  0  0  0  0  0  0  0  0  0
   10.7916    2.8953    0.0000 C   0  0  0  0  0  0  0  0  0  0  0  0
   12.1185    2.4642    0.0000 C   0  0  0  0  0  0  0  0  0  0  0  0
   13.1553    3.3977    0.0000 C   0  0  0  0  0  0  0  0  0  0  0  0
   14.4867    2.9651    0.0000 C   0  0  0  0  0  0  0  0  0  0  0  0
   15.5271    3.9019    0.0000 C   0  0  0  0  0  0  0  0  0  0  0  0
   15.2361    5.2713    0.0000 C   0  0  0  0  0  0  0  0  0  0  0  0
   13.9046    5.7039    0.0000 C   0  0  0  0  0  0  0  0  0  0  0  0
   12.8642    4.7671    0.0000 N   0  0  0  0  0  0  0  0  0  0  0  0
  1  2  2  0  0  0  0
  2  3  1  0  0  0  0
  3  4  2  0  0  0  0
  4  5  1  0  0  0  0
  5  6  2  0  0  0  0
  6  1  1  0  0  0  0
  6  7  1  0  0  0  0
  7  8  2  0  0  0  0
  7  9  1  0  0  0  0
  9 10  1  0  0  0  0
  1 11  1  0  0  0  0
 11 12  1  0  0  0  0
 12 13  2  0  0  0  0
 13 14  1  0  0  0  0
 14 15  2  0  0  0  0
 15 16  1  0  0  0  0
 16 17  2  0  0  0  0
 17 12  1  0  0  0  0
 14 18  1  0  0  0  0
 18 19  1  0  0  0  0
 19 20  2  0  0  0  0
 20 15  1  0  0  0  0
 20 21  1  0  0  0  0
 21 22  2  0  0  0  0
 22 23  1  0  0  0  0
 23 24  2  0  0  0  0
 24 25  1  0  0  0  0
 25 26  2  0  0  0  0
 26 27  1  0  0  0  0
 27 28  2  0  0  0  0
 28 23  1  0  0  0  0
M  END
>  <Mol_ID> (3)
4

>  <Formula> (3)
C22H18N4OS

>  <MolWeight> (3)
386.46952

>  <Cat> (3)
S1005

>  <Name> (3)
Axitinib

>  <Synonyms> (3)
AG 013736

>  <Target> (3)
VEGFR, PDGFR, c-Kit

>  <Form> (3)
Free Base

>  <CAS> (3)
319460-85-0

>  <URL> (3)
http://www.selleckchem.com/products/Axitinib.html

$$$$
untitled.cdx
csChFnd80/05071909342D

 38 43  0  0  0  0  0  0  0  0999 V2000
    8.4660    2.1000    0.0000 C   0  0  0  0  0  0  0  0  0  0  0  0
    8.4660    0.7000    0.0000 C   0  0  0  0  0  0  0  0  0  0  0  0
    9.6784    0.0000    0.0000 C   0  0  0  0  0  0  0  0  0  0  0  0
   10.8909    0.7000    0.0000 C   0  0  0  0  0  0  0  0  0  0  0  0
   10.8909    2.1000    0.0000 C   0  0  0  0  0  0  0  0  0  0  0  0
    9.6784    2.8000    0.0000 C   0  0  0  0  0  0  0  0  0  0  0  0
   12.1033    0.0000    0.0000 N   0  0  0  0  0  0  0  0  0  0  0  0
   13.3157    0.7000    0.0000 C   0  0  0  0  0  0  0  0  0  0  0  0
   13.3157    2.1000    0.0000 N   0  0  0  0  0  0  0  0  0  0  0  0
   12.1033    2.8000    0.0000 C   0  0  0  0  0  0  0  0  0  0  0  0
    9.6784    4.1951    0.0000 O   0  0  0  0  0  0  0  0  0  0  0  0
    7.2578    0.0024    0.0000 O   0  0  0  0  0  0  0  0  0  0  0  0
    6.0496    0.7000    0.0000 C   0  0  0  0  0  0  0  0  0  0  0  0
    4.8413    0.0024    0.0000 C   0  0  0  0  0  0  0  0  0  0  0  0
    3.6331    0.7000    0.0000 N   0  0  0  0  0  0  0  0  0  0  0  0
    3.6331    2.1000    0.0000 C   0  0  0  0  0  0  0  0  0  0  0  0
    2.4207    2.8000    0.0000 C   0  0  0  0  0  0  0  0  0  0  0  0
    1.2082    2.1000    0.0000 N   0  0  0  0  0  0  0  0  0  0  0  0
    1.2082    0.7000    0.0000 C   0  0  0  0  0  0  0  0  0  0  0  0
    2.4207    0.0000    0.0000 C   0  0  0  0  0  0  0  0  0  0  0  0
    0.0000    2.7976    0.0000 C   0  0  0  0  0  0  0  0  0  0  0  0
    8.4702    4.8927    0.0000 C   0  0  0  0  0  0  0  0  0  0  0  0
    8.4702    6.2927    0.0000 C   0  0  0  0  0  0  0  0  0  0  0  0
    7.2578    6.9927    0.0000 C   0  0  0  0  0  0  0  0  0  0  0  0
    6.0453    6.2927    0.0000 O   0  0  0  0  0  0  0  0  0  0  0  0
    6.0453    4.8927    0.0000 C   0  0  0  0  0  0  0  0  0  0  0  0
    7.2578    4.1927    0.0000 C   0  0  0  0  0  0  0  0  0  0  0  0
   12.1033    4.1951    0.0000 N   0  0  0  0  0  0  0  0  0  0  0  0
   13.3115    4.8927    0.0000 C   0  0  0  0  0  0  0  0  0  0  0  0
   14.5240    4.1927    0.0000 C   0  0  0  0  0  0  0  0  0  0  0  0
   15.7364    4.8927    0.0000 C   0  0  0  0  0  0  0  0  0  0  0  0
   15.7364    6.2927    0.0000 C   0  0  0  0  0  0  0  0  0  0  0  0
   14.5240    6.9927    0.0000 C   0  0  0  0  0  0  0  0  0  0  0  0
   13.3115    6.2927    0.0000 C   0  0  0  0  0  0  0  0  0  0  0  0
   14.5240    2.7976    0.0000 Cl  0  0  0  0  0  0  0  0  0  0  0  0
   14.2329    8.3621    0.0000 O   0  0  0  0  0  0  0  0  0  0  0  0
   12.8406    8.5085    0.0000 C   0  0  0  0  0  0  0  0  0  0  0  0
   12.2711    7.2295    0.0000 O   0  0  0  0  0  0  0  0  0  0  0  0
  1  2  2  0  0  0  0
  2  3  1  0  0  0  0
  3  4  2  0  0  0  0
  4  5  1  0  0  0  0
  5  6  2  0  0  0  0
  6  1  1  0  0  0  0
  4  7  1  0  0  0  0
  7  8  2  0  0  0  0
  8  9  1  0  0  0  0
  9 10  2  0  0  0  0
 10  5  1  0  0  0  0
  6 11  1  0  0  0  0
  2 12  1  0  0  0  0
 12 13  1  0  0  0  0
 13 14  1  0  0  0  0
 14 15  1  0  0  0  0
 15 16  1  0  0  0  0
 16 17  1  0  0  0  0
 17 18  1  0  0  0  0
 18 19  1  0  0  0  0
 19 20  1  0  0  0  0
 20 15  1  0  0  0  0
 18 21  1  0  0  0  0
 11 22  1  0  0  0  0
 22 23  1  0  0  0  0
 23 24  1  0  0  0  0
 24 25  1  0  0  0  0
 25 26  1  0  0  0  0
 26 27  1  0  0  0  0
 27 22  1  0  0  0  0
 10 28  1  0  0  0  0
 28 29  1  0  0  0  0
 29 30  2  0  0  0  0
 30 31  1  0  0  0  0
 31 32  2  0  0  0  0
 32 33  1  0  0  0  0
 33 34  2  0  0  0  0
 34 29  1  0  0  0  0
 30 35  1  0  0  0  0
 33 36  1  0  0  0  0
 36 37  1  0  0  0  0
 37 38  1  0  0  0  0
 38 34  1  0  0  0  0
M  END
>  <Mol_ID> (4)
5

>  <Formula> (4)
C27H32ClN5O5

>  <MolWeight> (4)
542.02648

>  <Cat> (4)
S1006

>  <Name> (4)
Saracatinib (AZD0530)

>  <Synonyms> (4)
N/A 

>  <Target> (4)
Src, Bcr-Abl

>  <Form> (4)
Free Base

>  <CAS> (4)
379231-04-6

>  <URL> (4)
http://www.selleckchem.com/products/AZD0530.html

$$$$
azd6244.cdx
csChFnd80/05071909342D

 27 29  0  0  0  0  0  0  0  0999 V2000
    4.8287    3.6157    0.0000 C   0  0  0  0  0  0  0  0  0  0  0  0
    4.8287    2.2157    0.0000 C   0  0  0  0  0  0  0  0  0  0  0  0
    6.0411    1.5157    0.0000 C   0  0  0  0  0  0  0  0  0  0  0  0
    7.2536    2.2157    0.0000 C   0  0  0  0  0  0  0  0  0  0  0  0
    7.2536    3.6157    0.0000 C   0  0  0  0  0  0  0  0  0  0  0  0
    6.0411    4.3157    0.0000 C   0  0  0  0  0  0  0  0  0  0  0  0
    8.4618    4.3133    0.0000 N   0  0  0  0  0  0  0  0  0  0  0  0
    9.6700    3.6157    0.0000 C   0  0  0  0  0  0  0  0  0  0  0  0
    9.6700    2.2157    0.0000 C   0  0  0  0  0  0  0  0  0  0  0  0
   10.8825    1.5157    0.0000 C   0  0  0  0  0  0  0  0  0  0  0  0
   12.0949    2.2157    0.0000 C   0  0  0  0  0  0  0  0  0  0  0  0
   12.0949    3.6157    0.0000 C   0  0  0  0  0  0  0  0  0  0  0  0
   10.8825    4.3157    0.0000 C   0  0  0  0  0  0  0  0  0  0  0  0
   10.8825    5.7109    0.0000 Cl  0  0  0  0  0  0  0  0  0  0  0  0
   13.3031    1.5182    0.0000 Br  0  0  0  0  0  0  0  0  0  0  0  0
    8.4618    1.5182    0.0000 F   0  0  0  0  0  0  0  0  0  0  0  0
    3.7883    1.2790    0.0000 N   0  0  0  0  0  0  0  0  0  0  0  0
    4.3577    0.0000    0.0000 C   0  0  0  0  0  0  0  0  0  0  0  0
    5.7501    0.1463    0.0000 N   0  0  0  0  0  0  0  0  0  0  0  0
    2.4236    1.5690    0.0000 C   0  0  0  0  0  0  0  0  0  0  0  0
    6.0411    5.7109    0.0000 C   0  0  0  0  0  0  0  0  0  0  0  0
    4.8329    6.4085    0.0000 N   0  0  0  0  0  0  0  0  0  0  0  0
    7.2494    6.4085    0.0000 O   0  0  0  0  0  0  0  0  0  0  0  0
    3.6247    5.7109    0.0000 O   0  0  0  0  0  0  0  0  0  0  0  0
    2.4165    6.4085    0.0000 C   0  0  0  0  0  0  0  0  0  0  0  0
    1.2082    5.7109    0.0000 C   0  0  0  0  0  0  0  0  0  0  0  0
    0.0000    6.4085    0.0000 O   0  0  0  0  0  0  0  0  0  0  0  0
  1  2  2  0  0  0  0
  2  3  1  0  0  0  0
  3  4  2  0  0  0  0
  4  5  1  0  0  0  0
  5  6  2  0  0  0  0
  6  1  1  0  0  0  0
  5  7  1  0  0  0  0
  7  8  1  0  0  0  0
  8  9  2  0  0  0  0
  9 10  1  0  0  0  0
 10 11  2  0  0  0  0
 11 12  1  0  0  0  0
 12 13  2  0  0  0  0
 13  8  1  0  0  0  0
 13 14  1  0  0  0  0
 11 15  1  0  0  0  0
  4 16  1  0  0  0  0
  2 17  1  0  0  0  0
 17 18  1  0  0  0  0
 18 19  2  0  0  0  0
 19  3  1  0  0  0  0
 17 20  1  0  0  0  0
  6 21  1  0  0  0  0
 21 22  1  0  0  0  0
 21 23  2  0  0  0  0
 22 24  1  0  0  0  0
 24 25  1  0  0  0  0
 25 26  1  0  0  0  0
 26 27  1  0  0  0  0
M  END
>  <Mol_ID> (5)
6

>  <Formula> (5)
C17H15BrClFN4O3

>  <MolWeight> (5)
457.6814032

>  <Cat> (5)
S1008

>  <Name> (5)
AZD6244 (Selumetinib)

>  <Synonyms> (5)
ARRY-142886 

>  <Target> (5)
MEK

>  <Form> (5)
Free Base

>  <CAS> (5)
606143-52-6

>  <URL> (5)
http://www.selleckchem.com/products/AZD6244.html

$$$$
untitled.cdx
csChFnd80/05071909342D

 40 44  0  0  0  0  0  0  0  0999 V2000
    3.6247    3.4927    0.0000 C   0  0  0  0  0  0  0  0  0  0  0  0
    3.6247    2.0927    0.0000 C   0  0  0  0  0  0  0  0  0  0  0  0
    4.8371    1.3927    0.0000 C   0  0  0  0  0  0  0  0  0  0  0  0
    6.0496    2.0927    0.0000 C   0  0  0  0  0  0  0  0  0  0  0  0
    6.0496    3.4927    0.0000 C   0  0  0  0  0  0  0  0  0  0  0  0
    4.8371    4.1927    0.0000 C   0  0  0  0  0  0  0  0  0  0  0  0
    7.3810    1.6601    0.0000 N   0  0  0  0  0  0  0  0  0  0  0  0
    8.2039    2.7927    0.0000 C   0  0  0  0  0  0  0  0  0  0  0  0
    7.3810    3.9253    0.0000 C   0  0  0  0  0  0  0  0  0  0  0  0
    7.8122    5.2522    0.0000 C   0  0  0  0  0  0  0  0  0  0  0  0
    6.8786    6.2890    0.0000 C   0  0  0  0  0  0  0  0  0  0  0  0
    9.1768    5.5423    0.0000 N   0  0  0  0  0  0  0  0  0  0  0  0
    7.3112    7.6205    0.0000 C   0  0  0  0  0  0  0  0  0  0  0  0
    6.3745    8.6609    0.0000 C   0  0  0  0  0  0  0  0  0  0  0  0
    5.0051    8.3698    0.0000 C   0  0  0  0  0  0  0  0  0  0  0  0
    4.5724    7.0383    0.0000 C   0  0  0  0  0  0  0  0  0  0  0  0
    5.5092    5.9979    0.0000 C   0  0  0  0  0  0  0  0  0  0  0  0
    9.6079    6.8691    0.0000 C   0  0  0  0  0  0  0  0  0  0  0  0
   10.9773    7.1602    0.0000 C   0  0  0  0  0  0  0  0  0  0  0  0
   11.4100    8.4917    0.0000 C   0  0  0  0  0  0  0  0  0  0  0  0
   10.4732    9.5321    0.0000 C   0  0  0  0  0  0  0  0  0  0  0  0
    9.1038    9.2410    0.0000 C   0  0  0  0  0  0  0  0  0  0  0  0
    8.6711    7.9095    0.0000 C   0  0  0  0  0  0  0  0  0  0  0  0
   10.9043   10.8589    0.0000 N   0  0  0  0  0  0  0  0  0  0  0  0
    9.9708   11.8957    0.0000 C   0  0  0  0  0  0  0  0  0  0  0  0
   12.2690   11.1490    0.0000 C   0  0  0  0  0  0  0  0  0  0  0  0
   13.2025   10.1122    0.0000 C   0  0  0  0  0  0  0  0  0  0  0  0
   12.7001   12.4759    0.0000 O   0  0  0  0  0  0  0  0  0  0  0  0
   14.5671   10.4023    0.0000 N   0  0  0  0  0  0  0  0  0  0  0  0
   15.5039    9.3619    0.0000 C   0  0  0  0  0  0  0  0  0  0  0  0
   16.8733    9.6529    0.0000 C   0  0  0  0  0  0  0  0  0  0  0  0
   17.3060   10.9844    0.0000 N   0  0  0  0  0  0  0  0  0  0  0  0
   16.3692   12.0248    0.0000 C   0  0  0  0  0  0  0  0  0  0  0  0
   14.9998   11.7338    0.0000 C   0  0  0  0  0  0  0  0  0  0  0  0
   18.6706   11.2745    0.0000 C   0  0  0  0  0  0  0  0  0  0  0  0
    2.4165    1.3951    0.0000 C   0  0  0  0  0  0  0  0  0  0  0  0
    1.2082    2.0927    0.0000 O   0  0  0  0  0  0  0  0  0  0  0  0
    2.4165    0.0000    0.0000 O   0  0  0  0  0  0  0  0  0  0  0  0
    0.0000    1.3951    0.0000 C   0  0  0  0  0  0  0  0  0  0  0  0
    9.5991    2.7927    0.0000 O   0  0  0  0  0  0  0  0  0  0  0  0
  1  2  2  0  0  0  0
  2  3  1  0  0  0  0
  3  4  2  0  0  0  0
  4  5  1  0  0  0  0
  5  6  2  0  0  0  0
  6  1  1  0  0  0  0
  4  7  1  0  0  0  0
  7  8  1  0  0  0  0
  8  9  1  0  0  0  0
  9  5  1  0  0  0  0
  9 10  2  0  0  0  0
 10 11  1  0  0  0  0
 10 12  1  0  0  0  0
 11 13  2  0  0  0  0
 13 14  1  0  0  0  0
 14 15  2  0  0  0  0
 15 16  1  0  0  0  0
 16 17  2  0  0  0  0
 17 11  1  0  0  0  0
 12 18  1  0  0  0  0
 18 19  2  0  0  0  0
 19 20  1  0  0  0  0
 20 21  2  0  0  0  0
 21 22  1  0  0  0  0
 22 23  2  0  0  0  0
 23 18  1  0  0  0  0
 21 24  1  0  0  0  0
 24 25  1  0  0  0  0
 24 26  1  0  0  0  0
 26 27  1  0  0  0  0
 26 28  2  0  0  0  0
 27 29  1  0  0  0  0
 29 30  1  0  0  0  0
 30 31  1  0  0  0  0
 31 32  1  0  0  0  0
 32 33  1  0  0  0  0
 33 34  1  0  0  0  0
 34 29  1  0  0  0  0
 32 35  1  0  0  0  0
  2 36  1  0  0  0  0
 36 37  1  0  0  0  0
 36 38  2  0  0  0  0
 37 39  1  0  0  0  0
  8 40  2  0  0  0  0
M  END
>  <Mol_ID> (6)
7

>  <Formula> (6)
C31H33N5O4

>  <MolWeight> (6)
539.62482

>  <Cat> (6)
S1010

>  <Name> (6)
Nintedanib (BIBF 1120)

>  <Synonyms> (6)
N/A 

>  <Target> (6)
VEGFR, PDGFR, FGFR

>  <Form> (6)
Free Base

>  <CAS> (6)
656247-17-5

>  <URL> (6)
http://www.selleckchem.com/products/BIBF1120.html

$$$$
untitled.cdx
csChFnd80/05071909342D

 28 29  0  0  0  0  0  0  0  0999 V2000
    0.0000    3.5000    0.0000 C   0  0  0  0  0  0  0  0  0  0  0  0
    0.0000    2.0951    0.0000 C   0  0  0  0  0  0  0  0  0  0  0  0
    1.2167    1.3927    0.0000 N   0  0  0  0  0  0  0  0  0  0  0  0
    2.4333    2.0951    0.0000 C   0  0  0  0  0  0  0  0  0  0  0  0
    2.4333    3.5000    0.0000 C   0  0  0  0  0  0  0  0  0  0  0  0
    1.2167    4.2024    0.0000 N   0  0  0  0  0  0  0  0  0  0  0  0
    3.6458    4.2000    0.0000 C   0  0  0  0  0  0  0  0  0  0  0  0
    4.8582    3.5000    0.0000 N   0  0  0  0  0  0  0  0  0  0  0  0
    3.6458    5.6000    0.0000 O   0  0  0  0  0  0  0  0  0  0  0  0
    6.0706    4.2000    0.0000 C   0  0  2  0  0  0  0  0  0  0  0  0
    7.2831    3.5000    0.0000 C   0  0  0  0  0  0  0  0  0  0  0  0
    8.4955    4.2000    0.0000 N   0  0  0  0  0  0  0  0  0  0  0  0
    7.2831    2.0951    0.0000 O   0  0  0  0  0  0  0  0  0  0  0  0
    6.0706    5.6000    0.0000 C   0  0  0  0  0  0  0  0  0  0  0  0
    7.2831    6.3000    0.0000 C   0  0  0  0  0  0  0  0  0  0  0  0
    8.4997    5.5976    0.0000 C   0  0  0  0  0  0  0  0  0  0  0  0
    9.7164    6.3000    0.0000 C   0  0  0  0  0  0  0  0  0  0  0  0
    9.7164    7.7049    0.0000 C   0  0  0  0  0  0  0  0  0  0  0  0
    8.4997    8.4073    0.0000 C   0  0  0  0  0  0  0  0  0  0  0  0
    7.2831    7.7049    0.0000 C   0  0  0  0  0  0  0  0  0  0  0  0
    9.7079    3.5000    0.0000 C   0  0  2  0  0  0  0  0  0  0  0  0
   10.9204    4.2000    0.0000 B   0  0  0  0  0  0  0  0  0  0  0  0
   12.1328    3.5000    0.0000 O   0  0  0  0  0  0  0  0  0  0  0  0
   10.9204    5.6000    0.0000 O   0  0  0  0  0  0  0  0  0  0  0  0
    9.7079    2.1000    0.0000 C   0  0  0  0  0  0  0  0  0  0  0  0
   10.9204    1.4000    0.0000 C   0  0  0  0  0  0  0  0  0  0  0  0
   10.9204    0.0000    0.0000 C   0  0  0  0  0  0  0  0  0  0  0  0
   12.1328    2.1000    0.0000 C   0  0  0  0  0  0  0  0  0  0  0  0
  1  2  2  0  0  0  0
  2  3  1  0  0  0  0
  3  4  2  0  0  0  0
  4  5  1  0  0  0  0
  5  6  2  0  0  0  0
  6  1  1  0  0  0  0
  5  7  1  0  0  0  0
  7  8  1  0  0  0  0
  7  9  2  0  0  0  0
  8 10  1  0  0  0  0
 10 11  1  0  0  0  0
 11 12  1  0  0  0  0
 11 13  2  0  0  0  0
 10 14  1  1  0  0  0
 14 15  1  0  0  0  0
 15 16  2  0  0  0  0
 16 17  1  0  0  0  0
 17 18  2  0  0  0  0
 18 19  1  0  0  0  0
 19 20  2  0  0  0  0
 20 15  1  0  0  0  0
 12 21  1  0  0  0  0
 21 22  1  0  0  0  0
 22 23  1  0  0  0  0
 22 24  1  0  0  0  0
 21 25  1  6  0  0  0
 25 26  1  0  0  0  0
 26 27  1  0  0  0  0
 26 28  1  0  0  0  0
M  END
>  <Mol_ID> (7)
8

>  <Formula> (7)
C19H25BN4O4

>  <MolWeight> (7)
384.2372

>  <Cat> (7)
S1013

>  <Name> (7)
Bortezomib (Velcade)

>  <Synonyms> (7)
MG-341, PS-341

>  <Target> (7)
Proteasome

>  <Form> (7)
Free Base

>  <CAS> (7)
179324-69-7

>  <URL> (7)
http://www.selleckchem.com/products/Bortezomib.html

$$$$
Bosutinib (SKI-606).cdx
csChFnd80/05071909342D

 36 39  0  0  0  0  0  0  0  0999 V2000
    7.7000    1.2124    0.0000 N   0  0  0  0  0  0  0  0  0  0  0  0
    6.3000    1.2124    0.0000 C   0  0  0  0  0  0  0  0  0  0  0  0
    5.6000    2.4249    0.0000 C   0  0  0  0  0  0  0  0  0  0  0  0
    6.3000    3.6373    0.0000 C   0  0  0  0  0  0  0  0  0  0  0  0
    7.7000    3.6373    0.0000 C   0  0  0  0  0  0  0  0  0  0  0  0
    8.4000    4.8497    0.0000 C   0  0  0  0  0  0  0  0  0  0  0  0
    9.8000    4.8497    0.0000 C   0  0  0  0  0  0  0  0  0  0  0  0
   10.5000    3.6373    0.0000 C   0  0  0  0  0  0  0  0  0  0  0  0
    9.8000    2.4249    0.0000 C   0  0  0  0  0  0  0  0  0  0  0  0
    8.4000    2.4249    0.0000 C   0  0  0  0  0  0  0  0  0  0  0  0
    4.2000    2.4249    0.0000 C   0  0  0  0  0  0  0  0  0  0  0  0
    2.8000    2.4249    0.0000 N   0  0  0  0  0  0  0  0  0  0  0  0
   11.9000    3.6373    0.0000 O   0  0  0  0  0  0  0  0  0  0  0  0
   12.6000    2.4249    0.0000 C   0  0  0  0  0  0  0  0  0  0  0  0
   14.0000    2.4249    0.0000 C   0  0  0  0  0  0  0  0  0  0  0  0
   14.7000    1.2124    0.0000 C   0  0  0  0  0  0  0  0  0  0  0  0
   16.1000    1.2124    0.0000 N   0  0  0  0  0  0  0  0  0  0  0  0
   16.8000    2.4249    0.0000 C   0  0  0  0  0  0  0  0  0  0  0  0
   18.2000    2.4249    0.0000 C   0  0  0  0  0  0  0  0  0  0  0  0
   18.9000    1.2124    0.0000 N   0  0  0  0  0  0  0  0  0  0  0  0
   18.2000    0.0000    0.0000 C   0  0  0  0  0  0  0  0  0  0  0  0
   16.8000    0.0000    0.0000 C   0  0  0  0  0  0  0  0  0  0  0  0
   20.3000    1.2124    0.0000 C   0  0  0  0  0  0  0  0  0  0  0  0
   10.5000    6.0622    0.0000 O   0  0  0  0  0  0  0  0  0  0  0  0
   11.9000    6.0622    0.0000 C   0  0  0  0  0  0  0  0  0  0  0  0
    5.6000    4.8497    0.0000 N   0  0  0  0  0  0  0  0  0  0  0  0
    4.2000    4.8497    0.0000 C   0  0  0  0  0  0  0  0  0  0  0  0
    3.5000    6.0622    0.0000 C   0  0  0  0  0  0  0  0  0  0  0  0
    2.1000    6.0622    0.0000 C   0  0  0  0  0  0  0  0  0  0  0  0
    1.4000    4.8497    0.0000 C   0  0  0  0  0  0  0  0  0  0  0  0
    2.1000    3.6373    0.0000 C   0  0  0  0  0  0  0  0  0  0  0  0
    3.5000    3.6373    0.0000 C   0  0  0  0  0  0  0  0  0  0  0  0
    1.4000    2.4249    0.0000 O   0  0  0  0  0  0  0  0  0  0  0  0
    0.0000    2.4249    0.0000 C   0  0  0  0  0  0  0  0  0  0  0  0
    0.0000    4.8497    0.0000 Cl  0  0  0  0  0  0  0  0  0  0  0  0
    4.2000    7.2746    0.0000 Cl  0  0  0  0  0  0  0  0  0  0  0  0
  1  2  2  0  0  0  0
  2  3  1  0  0  0  0
  3  4  2  0  0  0  0
  4  5  1  0  0  0  0
  5  6  2  0  0  0  0
  6  7  1  0  0  0  0
  7  8  2  0  0  0  0
  8  9  1  0  0  0  0
  9 10  2  0  0  0  0
  1 10  1  0  0  0  0
  5 10  1  0  0  0  0
 11 12  3  0  0  0  0
  3 11  1  0  0  0  0
 14 15  1  0  0  0  0
 15 16  1  0  0  0  0
 13 14  1  0  0  0  0
 17 18  1  0  0  0  0
 18 19  1  0  0  0  0
 19 20  1  0  0  0  0
 20 21  1  0  0  0  0
 21 22  1  0  0  0  0
 17 22  1  0  0  0  0
 20 23  1  0  0  0  0
 16 17  1  0  0  0  0
  8 13  1  0  0  0  0
 24 25  1  0  0  0  0
  7 24  1  0  0  0  0
 27 28  1  0  0  0  0
 28 29  2  0  0  0  0
 29 30  1  0  0  0  0
 30 31  2  0  0  0  0
 31 32  1  0  0  0  0
 27 32  2  0  0  0  0
 33 34  1  0  0  0  0
 31 33  1  0  0  0  0
 30 35  1  0  0  0  0
 28 36  1  0  0  0  0
 26 27  1  0  0  0  0
  4 26  1  0  0  0  0
M  END
>  <Mol_ID> (8)
9

>  <Formula> (8)
C26H29Cl2N5O3

>  <MolWeight> (8)
530.44616

>  <Cat> (8)
S1014

>  <Name> (8)
Bosutinib (SKI-606)

>  <Synonyms> (8)
N/A 

>  <Target> (8)
Src

>  <Form> (8)
Free Base

>  <CAS> (8)
380843-75-4

>  <URL> (8)
http://www.selleckchem.com/products/Bosutinib.html

$$$$
untitled.cdx
csChFnd80/05071909342D

 33 37  0  0  0  0  0  0  0  0999 V2000
    8.2695    3.7834    0.0000 C   0  0  0  0  0  0  0  0  0  0  0  0
    8.2695    2.3834    0.0000 C   0  0  0  0  0  0  0  0  0  0  0  0
    9.4819    1.6834    0.0000 C   0  0  0  0  0  0  0  0  0  0  0  0
   10.6944    2.3834    0.0000 C   0  0  0  0  0  0  0  0  0  0  0  0
   10.6944    3.7834    0.0000 C   0  0  0  0  0  0  0  0  0  0  0  0
    9.4819    4.4834    0.0000 C   0  0  0  0  0  0  0  0  0  0  0  0
   11.9068    1.6834    0.0000 N   0  0  0  0  0  0  0  0  0  0  0  0
   13.1193    2.3834    0.0000 C   0  0  0  0  0  0  0  0  0  0  0  0
   13.1193    3.7834    0.0000 N   0  0  0  0  0  0  0  0  0  0  0  0
   11.9068    4.4834    0.0000 C   0  0  0  0  0  0  0  0  0  0  0  0
   11.9068    5.8785    0.0000 O   0  0  0  0  0  0  0  0  0  0  0  0
   13.1150    6.5761    0.0000 C   0  0  0  0  0  0  0  0  0  0  0  0
   14.3275    5.8761    0.0000 C   0  0  0  0  0  0  0  0  0  0  0  0
   15.5399    6.5761    0.0000 C   0  0  0  0  0  0  0  0  0  0  0  0
   15.5399    7.9761    0.0000 C   0  0  0  0  0  0  0  0  0  0  0  0
   14.3275    8.6761    0.0000 C   0  0  0  0  0  0  0  0  0  0  0  0
   13.1150    7.9761    0.0000 C   0  0  0  0  0  0  0  0  0  0  0  0
   16.8714    6.1435    0.0000 C   0  0  0  0  0  0  0  0  0  0  0  0
   17.6943    7.2761    0.0000 C   0  0  0  0  0  0  0  0  0  0  0  0
   16.8714    8.4087    0.0000 N   0  0  0  0  0  0  0  0  0  0  0  0
   14.3275    4.4810    0.0000 F   0  0  0  0  0  0  0  0  0  0  0  0
   19.0894    7.2761    0.0000 C   0  0  0  0  0  0  0  0  0  0  0  0
    7.0613    4.4810    0.0000 O   0  0  0  0  0  0  0  0  0  0  0  0
    7.0613    1.6858    0.0000 O   0  0  0  0  0  0  0  0  0  0  0  0
    5.8531    2.3834    0.0000 C   0  0  0  0  0  0  0  0  0  0  0  0
    5.8531    3.7834    0.0000 C   0  0  0  0  0  0  0  0  0  0  0  0
    4.6406    1.6834    0.0000 C   0  0  0  0  0  0  0  0  0  0  0  0
    3.4282    2.3834    0.0000 C   0  0  0  0  0  0  0  0  0  0  0  0
    2.2157    1.6834    0.0000 N   0  0  0  0  0  0  0  0  0  0  0  0
    0.9368    2.2528    0.0000 C   0  0  0  0  0  0  0  0  0  0  0  0
    0.0000    1.2124    0.0000 C   0  0  0  0  0  0  0  0  0  0  0  0
    0.7000    0.0000    0.0000 C   0  0  0  0  0  0  0  0  0  0  0  0
    2.0694    0.2911    0.0000 C   0  0  0  0  0  0  0  0  0  0  0  0
  1  2  2  0  0  0  0
  2  3  1  0  0  0  0
  3  4  2  0  0  0  0
  4  5  1  0  0  0  0
  5  6  2  0  0  0  0
  6  1  1  0  0  0  0
  4  7  1  0  0  0  0
  7  8  2  0  0  0  0
  8  9  1  0  0  0  0
  9 10  2  0  0  0  0
 10  5  1  0  0  0  0
 10 11  1  0  0  0  0
 11 12  1  0  0  0  0
 12 13  2  0  0  0  0
 13 14  1  0  0  0  0
 14 15  2  0  0  0  0
 15 16  1  0  0  0  0
 16 17  2  0  0  0  0
 17 12  1  0  0  0  0
 14 18  1  0  0  0  0
 18 19  2  0  0  0  0
 19 20  1  0  0  0  0
 20 15  1  0  0  0  0
 13 21  1  0  0  0  0
 19 22  1  0  0  0  0
  1 23  1  0  0  0  0
  2 24  1  0  0  0  0
 24 25  1  0  0  0  0
 23 26  1  0  0  0  0
 25 27  1  0  0  0  0
 27 28  1  0  0  0  0
 28 29  1  0  0  0  0
 29 30  1  0  0  0  0
 30 31  1  0  0  0  0
 31 32  1  0  0  0  0
 32 33  1  0  0  0  0
 33 29  1  0  0  0  0
M  END
>  <Mol_ID> (9)
10

>  <Formula> (9)
C25H27FN4O3

>  <MolWeight> (9)
450.5052832

>  <Cat> (9)
S1017

>  <Name> (9)
Cediranib (AZD2171)

>  <Synonyms> (9)
Recentin 

>  <Target> (9)
VEGFR, Flt

>  <Form> (9)
Free Base

>  <CAS> (9)
288383-20-0

>  <URL> (9)
http://www.selleckchem.com/products/Cediranib.html

$$$$
Dasatinib.cdx
csChFnd80/05071909342D

 33 36  0  0  0  0  0  0  0  0999 V2000
    8.5748    4.1976    0.0000 N   0  0  0  0  0  0  0  0  0  0  0  0
    8.5748    2.7976    0.0000 C   0  0  0  0  0  0  0  0  0  0  0  0
    9.7872    2.0976    0.0000 N   0  0  0  0  0  0  0  0  0  0  0  0
   10.9996    2.7976    0.0000 C   0  0  0  0  0  0  0  0  0  0  0  0
   10.9996    4.1976    0.0000 C   0  0  0  0  0  0  0  0  0  0  0  0
    9.7872    4.8976    0.0000 C   0  0  0  0  0  0  0  0  0  0  0  0
   12.2079    2.1000    0.0000 N   0  0  0  0  0  0  0  0  0  0  0  0
   12.2079    0.7000    0.0000 C   0  0  0  0  0  0  0  0  0  0  0  0
   13.4203    0.0000    0.0000 C   0  0  0  0  0  0  0  0  0  0  0  0
   14.6327    0.7000    0.0000 N   0  0  0  0  0  0  0  0  0  0  0  0
   14.6327    2.1000    0.0000 C   0  0  0  0  0  0  0  0  0  0  0  0
   13.4203    2.8000    0.0000 C   0  0  0  0  0  0  0  0  0  0  0  0
   15.8410    0.0024    0.0000 C   0  0  0  0  0  0  0  0  0  0  0  0
   17.0492    0.7000    0.0000 C   0  0  0  0  0  0  0  0  0  0  0  0
   18.2574    0.0024    0.0000 O   0  0  0  0  0  0  0  0  0  0  0  0
    7.3666    2.1000    0.0000 C   0  0  0  0  0  0  0  0  0  0  0  0
    9.7872    6.2927    0.0000 N   0  0  0  0  0  0  0  0  0  0  0  0
    8.5790    6.9903    0.0000 C   0  0  0  0  0  0  0  0  0  0  0  0
    8.4326    8.3826    0.0000 N   0  0  0  0  0  0  0  0  0  0  0  0
    7.0632    8.6737    0.0000 C   0  0  0  0  0  0  0  0  0  0  0  0
    6.3632    7.4613    0.0000 C   0  0  0  0  0  0  0  0  0  0  0  0
    7.3000    6.4209    0.0000 S   0  0  0  0  0  0  0  0  0  0  0  0
    4.9757    7.3154    0.0000 C   0  0  0  0  0  0  0  0  0  0  0  0
    4.1557    8.4441    0.0000 N   0  0  0  0  0  0  0  0  0  0  0  0
    4.4083    6.0409    0.0000 O   0  0  0  0  0  0  0  0  0  0  0  0
    2.7682    8.2983    0.0000 C   0  0  0  0  0  0  0  0  0  0  0  0
    1.8939    9.3917    0.0000 C   0  0  0  0  0  0  0  0  0  0  0  0
    0.5098    9.1813    0.0000 C   0  0  0  0  0  0  0  0  0  0  0  0
    0.0000    7.8775    0.0000 C   0  0  0  0  0  0  0  0  0  0  0  0
    0.8743    6.7840    0.0000 C   0  0  0  0  0  0  0  0  0  0  0  0
    2.2584    6.9944    0.0000 C   0  0  0  0  0  0  0  0  0  0  0  0
    2.4020   10.6911    0.0000 Cl  0  0  0  0  0  0  0  0  0  0  0  0
    3.1296    5.9047    0.0000 C   0  0  0  0  0  0  0  0  0  0  0  0
  1  2  2  0  0  0  0
  2  3  1  0  0  0  0
  3  4  2  0  0  0  0
  4  5  1  0  0  0  0
  5  6  2  0  0  0  0
  6  1  1  0  0  0  0
  4  7  1  0  0  0  0
  7  8  1  0  0  0  0
  8  9  1  0  0  0  0
  9 10  1  0  0  0  0
 10 11  1  0  0  0  0
 11 12  1  0  0  0  0
 12  7  1  0  0  0  0
 10 13  1  0  0  0  0
 13 14  1  0  0  0  0
 14 15  1  0  0  0  0
  2 16  1  0  0  0  0
  6 17  1  0  0  0  0
 17 18  1  0  0  0  0
 18 19  2  0  0  0  0
 19 20  1  0  0  0  0
 20 21  2  0  0  0  0
 21 22  1  0  0  0  0
 22 18  1  0  0  0  0
 21 23  1  0  0  0  0
 23 24  1  0  0  0  0
 23 25  2  0  0  0  0
 24 26  1  0  0  0  0
 26 27  2  0  0  0  0
 27 28  1  0  0  0  0
 28 29  2  0  0  0  0
 29 30  1  0  0  0  0
 30 31  2  0  0  0  0
 31 26  1  0  0  0  0
 27 32  1  0  0  0  0
 31 33  1  0  0  0  0
M  END
>  <Mol_ID> (10)
12

>  <Formula> (10)
C22H26ClN7O2S

>  <MolWeight> (10)
488.00554

>  <Cat> (10)
S1021

>  <Name> (10)
Dasatinib

>  <Synonyms> (10)
BMS-354825

>  <Target> (10)
Src, Bcr-Abl, c-Kit

>  <Form> (10)
Free Base

>  <CAS> (10)
302962-49-8

>  <URL> (10)
http://www.selleckchem.com/products/Dasatinib.html

$$$$
untitled.cdx
csChFnd80/05071909342D

 71 74  0  0  0  0  0  0  0  0999 V2000
    3.6331   14.1975    0.0000 C   0  0  2  0  0  0  0  0  0  0  0  0
    3.6331   12.7926    0.0000 C   0  0  0  0  0  0  0  0  0  0  0  0
    4.8497   12.0902    0.0000 C   0  0  1  0  0  0  0  0  0  0  0  0
    6.0664   12.7926    0.0000 C   0  0  0  0  0  0  0  0  0  0  0  0
    6.0664   14.1975    0.0000 C   0  0  0  0  0  0  0  0  0  0  0  0
    4.8497   14.8999    0.0000 C   0  0  1  0  0  0  0  0  0  0  0  0
    2.4206   14.8975    0.0000 O   0  0  0  0  0  0  0  0  0  0  0  0
    1.2082   14.1975    0.0000 C   0  0  0  0  0  0  0  0  0  0  0  0
    4.8497   16.2999    0.0000 O   0  0  0  0  0  0  0  0  0  0  0  0
    3.6373   16.9999    0.0000 P   0  0  0  0  0  0  0  0  0  0  0  0
    3.6373   18.3999    0.0000 C   0  0  0  0  0  0  0  0  0  0  0  0
    2.4249   16.2999    0.0000 O   0  0  0  0  0  0  0  0  0  0  0  0
    4.8497   17.6999    0.0000 C   0  0  0  0  0  0  0  0  0  0  0  0
    4.8497   10.6901    0.0000 C   0  0  0  0  0  0  0  0  0  0  0  0
    6.0622    9.9901    0.0000 C   0  0  2  0  0  0  0  0  0  0  0  0
    6.0622    8.5902    0.0000 C   0  0  2  0  0  0  0  0  0  0  0  0
    7.2746   10.6901    0.0000 C   0  0  0  0  0  0  0  0  0  0  0  0
    7.2746    7.8901    0.0000 C   0  0  0  0  0  0  0  0  0  0  0  0
    4.8497    7.8901    0.0000 O   0  0  0  0  0  0  0  0  0  0  0  0
    8.4870    8.5902    0.0000 C   0  0  0  0  0  0  0  0  0  0  0  0
    9.6995    7.8901    0.0000 C   0  0  1  0  0  0  0  0  0  0  0  0
    8.4870    9.9901    0.0000 O   0  0  0  0  0  0  0  0  0  0  0  0
   10.9119    8.5902    0.0000 C   0  0  0  0  0  0  0  0  0  0  0  0
    9.6995    6.4901    0.0000 C   0  0  0  0  0  0  0  0  0  0  0  0
   12.1244    7.8901    0.0000 C   0  0  0  0  0  0  0  0  0  0  0  0
   13.3368    8.5902    0.0000 C   0  0  2  0  0  0  0  0  0  0  0  0
   12.1244    6.4901    0.0000 C   0  0  0  0  0  0  0  0  0  0  0  0
   14.5492    7.8901    0.0000 C   0  0  1  0  0  0  0  0  0  0  0  0
   13.3368    9.9901    0.0000 O   0  0  0  0  0  0  0  0  0  0  0  0
   14.5492    6.4901    0.0000 O   0  0  0  0  0  0  0  0  0  0  0  0
   13.3368    5.7901    0.0000 C   0  0  0  0  0  0  0  0  0  0  0  0
    3.6373    8.5902    0.0000 C   0  0  0  0  0  0  0  0  0  0  0  0
    2.4249    7.8901    0.0000 C   0  0  2  0  0  0  0  0  0  0  0  0
    3.6373    9.9901    0.0000 O   0  0  0  0  0  0  0  0  0  0  0  0
    1.2124    8.5902    0.0000 C   0  0  0  0  0  0  0  0  0  0  0  0
    2.4249    6.4901    0.0000 N   0  0  0  0  0  0  0  0  0  0  0  0
    0.0000    7.8901    0.0000 C   0  0  0  0  0  0  0  0  0  0  0  0
    0.0000    6.4901    0.0000 C   0  0  0  0  0  0  0  0  0  0  0  0
    1.2124    5.7901    0.0000 C   0  0  0  0  0  0  0  0  0  0  0  0
    2.4249    9.2901    0.0000 H   0  0  0  0  0  0  0  0  0  0  0  0
    3.6373    5.7901    0.0000 C   0  0  0  0  0  0  0  0  0  0  0  0
    4.8497    6.4901    0.0000 O   0  0  0  0  0  0  0  0  0  0  0  0
    3.6373    4.3901    0.0000 C   0  0  0  0  0  0  0  0  0  0  0  0
    4.8497    3.6901    0.0000 C   0  0  2  0  0  0  0  0  0  0  0  0
    2.4249    3.6901    0.0000 O   0  0  0  0  0  0  0  0  0  0  0  0
    6.0622    4.3901    0.0000 O   0  0  0  0  0  0  0  0  0  0  0  0
    4.8497    2.2901    0.0000 C   0  0  1  0  0  0  0  0  0  0  0  0
    4.8497    5.0902    0.0000 O   0  0  0  0  0  0  0  0  0  0  0  0
    6.0622    1.5902    0.0000 C   0  0  0  0  0  0  0  0  0  0  0  0
    7.2746    2.2901    0.0000 C   0  0  0  0  0  0  0  0  0  0  0  0
    7.2746    3.6901    0.0000 C   0  0  1  0  0  0  0  0  0  0  0  0
    3.6373    1.5902    0.0000 C   0  0  0  0  0  0  0  0  0  0  0  0
    8.4870    4.3901    0.0000 C   0  0  0  0  0  0  0  0  0  0  0  0
    7.2746    5.0902    0.0000 H   0  0  0  0  0  0  0  0  0  0  0  0
    9.6995    3.6901    0.0000 C   0  0  1  0  0  0  0  0  0  0  0  0
   10.9119    4.3901    0.0000 C   0  0  0  0  0  0  0  0  0  0  0  0
    9.6995    2.2901    0.0000 O   0  0  0  0  0  0  0  0  0  0  0  0
   10.9119    1.5902    0.0000 C   0  0  0  0  0  0  0  0  0  0  0  0
   12.1244    3.6901    0.0000 C   0  0  0  0  0  0  0  0  0  0  0  0
   10.9119    5.7901    0.0000 C   0  0  0  0  0  0  0  0  0  0  0  0
   13.3368    4.3901    0.0000 C   0  0  0  0  0  0  0  0  0  0  0  0
   14.5492    3.6901    0.0000 C   0  0  0  0  0  0  0  0  0  0  0  0
   15.7617    4.3901    0.0000 C   0  0  0  0  0  0  0  0  0  0  0  0
   16.9741    3.6901    0.0000 C   0  0  0  0  0  0  0  0  0  0  0  0
   18.1865    4.3901    0.0000 C   0  0  1  0  0  0  0  0  0  0  0  0
   19.3990    3.6901    0.0000 C   0  0  0  0  0  0  0  0  0  0  0  0
   18.1865    5.7901    0.0000 C   0  0  0  0  0  0  0  0  0  0  0  0
   16.9741    6.4901    0.0000 C   0  0  2  0  0  0  0  0  0  0  0  0
   16.9741    7.8901    0.0000 C   0  0  0  0  0  0  0  0  0  0  0  0
   15.7617    5.7901    0.0000 C   0  0  0  0  0  0  0  0  0  0  0  0
   17.9640    8.8801    0.0000 O   0  0  0  0  0  0  0  0  0  0  0  0
  1  2  1  0  0  0  0
  2  3  1  0  0  0  0
  3  4  1  0  0  0  0
  4  5  1  0  0  0  0
  5  6  1  0  0  0  0
  6  1  1  0  0  0  0
  1  7  1  1  0  0  0
  7  8  1  0  0  0  0
  6  9  1  6  0  0  0
  9 10  1  0  0  0  0
 10 11  1  0  0  0  0
 10 12  2  0  0  0  0
 10 13  1  0  0  0  0
  3 14  1  1  0  0  0
 14 15  1  0  0  0  0
 16 15  1  6  0  0  0
 15 17  1  1  0  0  0
 16 18  1  0  0  0  0
 16 19  1  0  0  0  0
 18 20  1  0  0  0  0
 20 21  1  0  0  0  0
 20 22  2  0  0  0  0
 21 23  1  0  0  0  0
 21 24  1  1  0  0  0
 23 25  2  0  0  0  0
 25 26  1  0  0  0  0
 25 27  1  0  0  0  0
 26 28  1  0  0  0  0
 26 29  1  1  0  0  0
 28 30  1  6  0  0  0
 30 31  1  0  0  0  0
 19 32  1  0  0  0  0
 32 33  1  0  0  0  0
 32 34  2  0  0  0  0
 33 35  1  0  0  0  0
 33 36  1  0  0  0  0
 35 37  1  0  0  0  0
 37 38  1  0  0  0  0
 38 39  1  0  0  0  0
 39 36  1  0  0  0  0
 33 40  1  6  0  0  0
 36 41  1  0  0  0  0
 41 42  2  0  0  0  0
 41 43  1  0  0  0  0
 43 44  1  0  0  0  0
 43 45  2  0  0  0  0
 44 46  1  0  0  0  0
 44 47  1  0  0  0  0
 44 48  1  1  0  0  0
 47 49  1  0  0  0  0
 49 50  1  0  0  0  0
 50 51  1  0  0  0  0
 51 46  1  0  0  0  0
 47 52  1  1  0  0  0
 51 53  1  0  0  0  0
 51 54  1  1  0  0  0
 53 55  1  0  0  0  0
 55 56  1  0  0  0  0
 55 57  1  1  0  0  0
 57 58  1  0  0  0  0
 56 59  2  0  0  0  0
 56 60  1  0  0  0  0
 59 61  1  0  0  0  0
 61 62  2  0  0  0  0
 62 63  1  0  0  0  0
 63 64  2  0  0  0  0
 64 65  1  0  0  0  0
 65 66  1  6  0  0  0
 65 67  1  0  0  0  0
 67 68  1  0  0  0  0
 68 69  1  0  0  0  0
 68 70  1  1  0  0  0
 28 69  1  0  0  0  0
 69 71  2  0  0  0  0
M  END
>  <Mol_ID> (11)
13

>  <Formula> (11)
C53H84NO14P

>  <MolWeight> (11)
990.206121

>  <Cat> (11)
S1022

>  <Name> (11)
Deforolimus (MK-8669) 

>  <Synonyms> (11)
AP23573, MK-8669

>  <Target> (11)
mTOR

>  <Form> (11)
Free Base

>  <CAS> (11)
572924-54-0

>  <URL> (11)
http://www.selleckchem.com/products/Deforolimus.html

$$$$
